* sub_models.inc: included file providing a subckt definition
.subckt DIVIDER vin vout gnd
R1 vin vout 10k
R2 vout gnd 10k
.ends DIVIDER
